
**** 08/31/20 00:59:33 ************** PSpice Lite (Mar 2000) *****************

 ** Profile: "SCHEMATIC1-vdcseries"  [ D:\ae\exp1res-SCHEMATIC1-vdcseries.sim ] 


 ****     CIRCUIT DESCRIPTION


******************************************************************************




** Creating circuit file "exp1res-SCHEMATIC1-vdcseries.sim.cir" 
** WARNING: THIS AUTOMATICALLY GENERATED FILE MAY BE OVERWRITTEN BY SUBSEQUENT SIMULATIONS

*Libraries: 
* Local Libraries :
* From [PSPICE NETLIST] section of d:\PSpice\PSpice.ini file:
.lib "nom.lib" 

*Analysis directives: 
.AC DEC 100 0 100k
------------$
ERROR -- Invalid value
.PROBE V(*) I(*) W(*) D(*) NOISE(*) 
.INC ".\exp1res-SCHEMATIC1.net" 



**** INCLUDING exp1res-SCHEMATIC1.net ****
* source EXP1RES
R_R1         N00091 N00121  1k  
R_R2         N00121 N00148  2k  
R_R3         N00148 0  1k  
V_V2         N00091 0 DC 0Vdc AC 1Vac 

**** RESUMING exp1res-SCHEMATIC1-vdcseries.sim.cir ****
.END
