
**** 08/31/20 01:39:23 ************** PSpice Lite (Mar 2000) *****************

 ** Profile: "SCHEMATIC1-vdcseries"  [ D:\ae\exp1res-SCHEMATIC1-vdcseries.sim ] 


 ****     CIRCUIT DESCRIPTION


******************************************************************************




** Creating circuit file "exp1res-SCHEMATIC1-vdcseries.sim.cir" 
** WARNING: THIS AUTOMATICALLY GENERATED FILE MAY BE OVERWRITTEN BY SUBSEQUENT SIMULATIONS

*Libraries: 
* Local Libraries :
* From [PSPICE NETLIST] section of d:\PSpice\PSpice.ini file:
.lib "nom.lib" 

*Analysis directives: 
.TRAN  0 10ms 0 
.PROBE V(*) I(*) W(*) D(*) NOISE(*) 
.INC ".\exp1res-SCHEMATIC1.net" 



**** INCLUDING exp1res-SCHEMATIC1.net ****
* source EXP1RES
R_R4         N00965 0  1k  
V_V10         N00965 0  
+SIN 0 10 1000 0 0 0
R_R5         N00965 0  2k  
R_R6         N00965 0  3k  

**** RESUMING exp1res-SCHEMATIC1-vdcseries.sim.cir ****
.END

**** 08/31/20 01:39:23 ************** PSpice Lite (Mar 2000) *****************

 ** Profile: "SCHEMATIC1-vdcseries"  [ D:\ae\exp1res-SCHEMATIC1-vdcseries.sim ] 


 ****     INITIAL TRANSIENT SOLUTION       TEMPERATURE =   27.000 DEG C


******************************************************************************



 NODE   VOLTAGE     NODE   VOLTAGE     NODE   VOLTAGE     NODE   VOLTAGE


(N00965)    0.0000 




    VOLTAGE SOURCE CURRENTS
    NAME         CURRENT

    V_V10        0.000E+00

    TOTAL POWER DISSIPATION   0.00E+00  WATTS



          JOB CONCLUDED

          TOTAL JOB TIME             .05
