
**** 08/30/20 14:37:54 ************** PSpice Lite (Mar 2000) *****************

 ** Profile: "SCHEMATIC1-dcseries"  [ D:\ae\exp1-schematic1-dcseries.sim ] 


 ****     CIRCUIT DESCRIPTION


******************************************************************************




** Creating circuit file "exp1-schematic1-dcseries.sim.cir" 
** WARNING: THIS AUTOMATICALLY GENERATED FILE MAY BE OVERWRITTEN BY SUBSEQUENT SIMULATIONS

*Libraries: 
* Local Libraries :
* From [PSPICE NETLIST] section of C:\Program Files\OrcadLite\PSpice\PSpice.ini file:
.lib "nom.lib" 

*Analysis directives: 
.TRAN  0 5ms 0 
.PROBE V(*) I(*) W(*) D(*) NOISE(*) 
.INC ".\exp1-SCHEMATIC1.net" 



**** INCLUDING exp1-SCHEMATIC1.net ****
* source EXP1
R_R1         N00103 N00133  1k  
R_R2         N00133 N00160  2k  
R_R3         N00160 0  3k  
V_V3         N00103 0  
+SIN 0 10 1000 0 0 0

**** RESUMING exp1-schematic1-dcseries.sim.cir ****
.END

**** 08/30/20 14:37:54 ************** PSpice Lite (Mar 2000) *****************

 ** Profile: "SCHEMATIC1-dcseries"  [ D:\ae\exp1-schematic1-dcseries.sim ] 


 ****     INITIAL TRANSIENT SOLUTION       TEMPERATURE =   27.000 DEG C


******************************************************************************



 NODE   VOLTAGE     NODE   VOLTAGE     NODE   VOLTAGE     NODE   VOLTAGE


(N00103)    0.0000 (N00133)    0.0000 (N00160)    0.0000 




    VOLTAGE SOURCE CURRENTS
    NAME         CURRENT

    V_V3         0.000E+00

    TOTAL POWER DISSIPATION   0.00E+00  WATTS



          JOB CONCLUDED

          TOTAL JOB TIME             .08
