
**** 08/31/20 21:55:54 ************** PSpice Lite (Mar 2000) *****************

 ** Profile: "SCHEMATIC1-test"  [ D:\ae\exp2-schematic1-test.sim ] 


 ****     CIRCUIT DESCRIPTION


******************************************************************************




** Creating circuit file "exp2-schematic1-test.sim.cir" 
** WARNING: THIS AUTOMATICALLY GENERATED FILE MAY BE OVERWRITTEN BY SUBSEQUENT SIMULATIONS

*Libraries: 
* Local Libraries :
* From [PSPICE NETLIST] section of d:\PSpice\PSpice.ini file:
.lib "nom.lib" 

*Analysis directives: 
.DC LIN V_V1 0 10 0.1 
.PROBE V(*) I(*) W(*) D(*) NOISE(*) 
.INC ".\exp2-SCHEMATIC1.net" 



**** INCLUDING exp2-SCHEMATIC1.net ****
* source EXP2
R_R2         N00115 N00149  1k  
V_V1         N00115 0 10Vdc
D_D1         N00149 0 Dbreak 

**** RESUMING exp2-schematic1-test.sim.cir ****
.END

**** 08/31/20 21:55:54 ************** PSpice Lite (Mar 2000) *****************

 ** Profile: "SCHEMATIC1-test"  [ D:\ae\exp2-schematic1-test.sim ] 


 ****     Diode MODEL PARAMETERS


******************************************************************************




               Dbreak          
          IS   10.000000E-15 
          RS     .1          
         CJO  100.000000E-15 



          JOB CONCLUDED

          TOTAL JOB TIME             .02
