
**** 08/31/20 15:14:58 ************** PSpice Lite (Mar 2000) *****************

 ** Profile: "SCHEMATIC1-test"  [ D:\ae\exp2-SCHEMATIC1-test.sim ] 


 ****     CIRCUIT DESCRIPTION


******************************************************************************




** Creating circuit file "exp2-SCHEMATIC1-test.sim.cir" 
** WARNING: THIS AUTOMATICALLY GENERATED FILE MAY BE OVERWRITTEN BY SUBSEQUENT SIMULATIONS

*Libraries: 
* Local Libraries :
* From [PSPICE NETLIST] section of d:\PSpice\PSpice.ini file:
.lib "nom.lib" 

*Analysis directives: 
.DC LIN V_V1 0 5 0.1 
.PROBE V(*) I(*) W(*) D(*) NOISE(*) 
.INC ".\exp2-SCHEMATIC1.net" 



**** INCLUDING exp2-SCHEMATIC1.net ****
* source EXP2
R_R2         N00115 N00149  1k  
V_V1         N00115 N00176 10Vdc
D_D1         N00149 N00176 Dbreak 

**** RESUMING exp2-SCHEMATIC1-test.sim.cir ****
.END

ERROR -- Node N00115 is floating
ERROR -- Node N00149 is floating
ERROR -- Node N00176 is floating