
**** 09/28/20 22:38:39 ************** PSpice Lite (Mar 2000) *****************

 ** Profile: "SCHEMATIC1-f"  [ D:\ae\fullwave-schematic1-f.sim ] 


 ****     CIRCUIT DESCRIPTION


******************************************************************************




** Creating circuit file "fullwave-schematic1-f.sim.cir" 
** WARNING: THIS AUTOMATICALLY GENERATED FILE MAY BE OVERWRITTEN BY SUBSEQUENT SIMULATIONS

*Libraries: 
* Local Libraries :
* From [PSPICE NETLIST] section of d:\PSpice\PSpice.ini file:
.lib "nom.lib" 

*Analysis directives: 
.TRAN  0 40ms 0 
.PROBE V(*) I(*) W(*) D(*) NOISE(*) 
.INC ".\fullwave-SCHEMATIC1.net" 



**** INCLUDING fullwave-SCHEMATIC1.net ****
* source FULLWAVE
R_R1         0 N00191  1k  
R_R2         N00329 0  1k  
D_D1         N00252 N00191 Dbreak 
D_D2         N00225 N00191 Dbreak 
D_D3         N00329 N00252 Dbreak 
D_D4         N00329 N00225 Dbreak 
V_V1         N00252 N00225  
+SIN 0 10 50 0 0 0

**** RESUMING fullwave-schematic1-f.sim.cir ****
.END

**** 09/28/20 22:38:39 ************** PSpice Lite (Mar 2000) *****************

 ** Profile: "SCHEMATIC1-f"  [ D:\ae\fullwave-schematic1-f.sim ] 


 ****     Diode MODEL PARAMETERS


******************************************************************************




               Dbreak          
          IS   10.000000E-15 
          RS     .1          
         CJO  100.000000E-15 


**** 09/28/20 22:38:39 ************** PSpice Lite (Mar 2000) *****************

 ** Profile: "SCHEMATIC1-f"  [ D:\ae\fullwave-schematic1-f.sim ] 


 ****     INITIAL TRANSIENT SOLUTION       TEMPERATURE =   27.000 DEG C


******************************************************************************



 NODE   VOLTAGE     NODE   VOLTAGE     NODE   VOLTAGE     NODE   VOLTAGE


(N00191) 437.3E-30 (N00225)-12.11E-21 (N00252)-12.11E-21 (N00329)-437.2E-30 




    VOLTAGE SOURCE CURRENTS
    NAME         CURRENT

    V_V1         0.000E+00

    TOTAL POWER DISSIPATION   0.00E+00  WATTS



          JOB CONCLUDED

          TOTAL JOB TIME             .06
